         192
  Built with Packmol                                             
  O           13.548270       14.402434       14.866636
  H           13.464566       14.526964       15.812001
  H           12.840041       13.799579       14.640346
  O           11.191144       10.348462        1.987233
  H           11.374099       11.139753        1.480661
  H           11.855588        9.721536        1.701392
  O           10.412786        7.145913        3.135169
  H           10.247167        7.553613        2.285121
  H           10.340858        6.206059        2.968651
  O           16.349320        9.495551       10.496707
  H           15.540097        9.938359       10.241153
  H           16.649115        9.063165        9.697086
  O            1.425872       11.799389       12.829035
  H            1.156720       12.580806       12.346155
  H            2.381279       11.798332       12.770514
  O            9.755179       17.265778       18.929288
  H            8.970415       16.972038       18.466588
  H           10.456516       16.710402       18.588829
  O           15.211872       14.679983        3.337010
  H           15.853887       14.220105        2.796123
  H           15.026806       15.486685        2.856166
  O           17.634328       17.502841       11.506710
  H           18.371197       17.453758       12.115679
  H           17.064233       18.178478       11.873774
  O            7.733372        7.066290       18.662816
  H            8.453292        6.474359       18.444730
  H            7.927403        7.868796       18.178497
  O           11.830737        3.573164        4.548615
  H           12.537391        3.258714        5.112521
  H           11.997850        3.160066        3.701472
  O           15.305433        3.365676        4.613100
  H           15.392643        3.288338        3.663026
  H           14.715360        4.108559        4.740253
  O            8.576094       11.119535       17.581899
  H            8.036284       10.330126       17.541076
  H            9.476115       10.794160       17.599815
  O           12.674621        0.521811        2.007212
  H           12.785411        1.432828        2.279245
  H           11.789860        0.292379        2.291445
  O            9.321574        8.562844       14.976382
  H           10.103919        9.114344       14.972989
  H            9.634201        7.704587       15.262543
  O           17.261549        2.203104        8.311119
  H           17.607538        1.310680        8.301209
  H           16.607808        2.214824        7.612037
  O           17.244182       14.674847       10.684072
  H           17.762105       13.936229       11.004115
  H           17.831960       15.427296       10.751658
  O           16.362617        6.989210       11.077039
  H           17.097004        7.027317       10.464298
  H           16.016955        6.101628       10.982455
  O           12.804546        7.401439        2.560639
  H           12.804794        7.643904        3.486619
  H           13.530792        7.897255        2.182535
  O           10.345325       19.910572        7.503543
  H           10.395909       18.986119        7.260528
  H           10.936462       19.994744        8.251675
  O           18.833352       16.914687        4.191596
  H           19.196925       16.565685        5.005378
  H           19.331467       17.716021        4.030433
  O           15.869343       11.157206        4.056837
  H           16.784292       11.377616        4.231522
  H           15.370465       11.707032        4.661023
  O            7.374482       10.703981       10.848743
  H            7.574471        9.810489       10.569627
  H            6.420484       10.723926       10.924366
  O            7.348576       12.107652        3.581123
  H            8.229080       11.819378        3.340626
  H            7.219341       12.919230        3.090340
  O            9.455514       19.129843       11.358261
  H            9.246543       18.457413       10.709880
  H            9.683464       19.901112       10.839213
  O            7.547380        6.745708       14.414033
  H            6.857567        7.283131       14.024721
  H            7.364507        5.858825       14.103832
  O            0.731376        8.944129       16.606685
  H            0.079099        9.643422       16.648541
  H            1.570239        9.391405       16.718403
  O            8.521894        9.463893        1.923812
  H            7.736523        9.240759        1.424181
  H            9.223264        9.482721        1.272694
  O           17.625605       19.431896        9.127065
  H           18.061481       20.000007        9.762274
  H           18.339190       19.058242        8.609950
  O            7.665821        5.511326        2.349374
  H            6.960310        5.975491        1.898781
  H            8.454371        5.735147        1.855085
  O            6.545975        7.342122        5.288020
  H            7.388799        7.034522        4.954467
  H            5.906106        6.730227        4.924178
  O           13.108476        4.622097        0.971684
  H           13.810429        4.020339        0.723939
  H           12.552842        4.112787        1.561687
  O            9.223585       15.300627        4.754355
  H            9.211566       15.410000        5.705209
  H           10.120070       15.030704        4.555144
  O            9.515794       13.880502       11.493985
  H           10.267358       14.210884       11.986150
  H            9.686946       12.943995       11.394537
  O           13.662171        1.080890        4.663077
  H           12.749502        1.066749        4.951288
  H           14.165287        1.217107        5.465914
  O            5.822109       16.803484        5.933417
  H            4.940675       16.522081        5.688234
  H            5.736775       17.742266        6.099656
  O            8.499281       10.673680        5.601532
  H            7.556622       10.665604        5.435527
  H            8.779933        9.773751        5.435430
  O            1.126790       18.913866       10.797172
  H            0.595853       19.709075       10.841644
  H            0.557142       18.225456       11.140424
  O           14.457444       15.631767        8.182076
  H           13.938305       14.831713        8.100605
  H           13.906103       16.315409        7.801438
  O            8.213191       10.678248       19.856767
  H            8.052521        9.754295       19.665130
  H            9.158479       10.733446       19.996812
  O            1.850107       18.024240       12.976143
  H            2.711434       18.390419       13.176785
  H            1.229993       18.670427       13.313973
  O           11.053288        4.791059       18.172022
  H           11.390594        4.938119       17.288378
  H           11.551974        5.394551       18.722784
  O           12.198165        6.937219        8.706936
  H           13.027364        6.483489        8.857887
  H           11.564203        6.235573        8.558568
  O           17.144777       12.380549       12.683643
  H           16.888011       11.458539       12.697687
  H           17.621691       12.509372       13.503513
  O           14.965421        4.910184        7.949203
  H           15.734048        5.406187        7.667382
  H           15.118199        4.023979        7.621290
  O            6.836888       12.091893        7.462710
  H            7.549616       11.704973        7.971178
  H            6.989776       13.035378        7.514567
  O            8.494523       15.075796        1.009068
  H            9.068942       15.839797        1.059808
  H            9.090117       14.334657        0.898570
  O            3.486213        3.678736        7.724487
  H            4.196333        3.084969        7.480767
  H            3.883576        4.549314        7.703861
  O            3.058184        1.972455       11.360611
  H            3.779145        2.602062       11.366915
  H            2.267907        2.512540       11.360638
  O            7.297511       10.445890       13.856159
  H            7.012703       11.359674       13.845631
  H            8.244204       10.491108       13.990164
  O           11.199969        8.865721       17.983865
  H           12.064921        8.643982       18.328709
  H           10.651847        8.114047       18.209203
  O           18.976832        4.851196       16.025462
  H           18.542518        5.697190       15.916398
  H           18.260045        4.220584       16.094547
  O            6.961004        4.885519       18.760688
  H            6.438661        4.234677       18.291870
  H            7.665068        4.380444       19.167410
  O           19.329999       10.394288       10.929017
  H           19.449189       10.652947       11.842865
  H           18.979918       11.176161       10.501998
  O           11.645453        3.137527        8.031819
  H           11.718990        2.256661        8.399100
  H           12.484691        3.286809        7.596361
  O           14.942028       17.986886       13.257123
  H           14.201297       18.001703       13.863197
  H           14.625951       17.487766       12.503994
  O           12.790821        9.517819        6.484031
  H           12.453438        8.623374        6.435358
  H           13.738002        9.412508        6.573399
  O           13.123653       12.703728        3.576215
  H           12.576028       11.983226        3.888005
  H           13.651026       12.318820        2.876250
  O           18.014360        4.241928       10.660849
  H           18.526545        3.448873       10.502864
  H           17.124637        3.925709       10.817785
  O           17.274074       15.007867        0.446980
  H           17.752230       15.790933        0.174209
  H           17.849785       14.280617        0.210564
  O            1.904682       12.027814       17.111309
  H            1.188171       11.673370       16.584801
  H            1.558067       12.845189       17.469059
  O           19.715528        6.353057        4.264169
  H           19.882401        5.441219        4.025560
  H           18.845931        6.538585        3.909754
  O           12.127971       12.829657        7.504367
  H           11.653316       12.483032        8.259868
  H           12.604153       12.076814        7.154070
  O           16.299906       14.550934        7.202512
  H           16.659682       15.375888        7.528460
  H           17.052578       13.961118        7.159742
  O           15.006422        5.864533       17.184498
  H           15.215204        4.934301       17.269978
  H           14.055558        5.907371       17.285742
